Measurement: Infrared, Infrared Data Processed
Mineral: Hydromagnesite
Rruff sample: R060011
Ideal chemistry: Mg_5_(CO_3_)_4_(OH)_2_4H_2_O
Locality: Paradise Range, Nye County, Nevada, USA
Source: University of Arizona Mineral Museum
Description: Colorless bladed crystals
Measured chemistry: Mg_5.00_(CO_3_)_4_(OH)_2_Â·4H_2_O
x	intensity
399.193	0.220286
408.835	0.230076
418.477	0.231272
428.12	0.240047
437.762	0.205463
447.404	0.14942
457.047	0.129149
466.689	0.125976
476.331	0.120067
485.974	0.0934375
495.616	0.0691694
505.258	0.0605433
514.901	0.0595883
524.543	0.0581485
534.185	0.0629739
543.828	0.0717053
553.47	0.0869204
563.112	0.11515
572.755	0.157529
582.397	0.195034
592.039	0.197877
601.682	0.175045
611.324	0.142044
620.966	0.112873
630.609	0.0913059
640.251	0.080729
649.893	0.0764476
659.536	0.0748359
669.178	0.0661018
678.82	0.0586077
688.463	0.0602983
698.105	0.0702606
707.747	0.0803137
717.39	0.0815813
727.032	0.0818096
736.674	0.0832137
746.317	0.0927868
755.959	0.0874913
765.601	0.109197
775.244	0.169838
784.886	0.185726
794.528	0.137229
804.171	0.0875299
813.813	0.061932
823.455	0.0514494
833.098	0.04914
842.74	0.0550452
852.382	0.0945673
862.025	0.0463668
871.667	0.0391174
881.309	0.0823402
890.952	0.0306818
900.594	0.026367
910.236	0.0272105
919.879	0.0272937
929.521	0.0271903
939.163	0.0270033
948.806	0.0257127
958.448	0.0249562
968.09	0.0249308
977.733	0.023141
987.375	0.0215582
997.017	0.0198245
1006.66	0.018061
1016.3	0.0174564
1025.94	0.015387
1035.59	0.0148346
1045.23	0.0149966
1054.87	0.0155246
1064.51	0.0147163
1074.16	0.015517
1083.8	0.0165
1093.44	0.0185517
1103.08	0.024463
1112.72	0.0381779
1122.37	0.0448666
1132.01	0.0207844
1141.65	0.0184962
1151.3	0.0187292
1160.94	0.0183516
1170.58	0.0182089
1180.22	0.0188746
1189.86	0.0203684
1199.51	0.021079
1209.15	0.0212713
1218.79	0.0224452
1228.43	0.0243724
1238.08	0.0259602
1247.72	0.0279177
1257.36	0.0299606
1267	0.0329104
1276.64	0.0362931
1286.29	0.0389645
1295.93	0.0417402
1305.57	0.0470698
1315.21	0.0542171
1324.86	0.0630857
1334.5	0.0754996
1344.14	0.0931956
1353.78	0.118745
1363.43	0.15568
1373.07	0.209541
1382.71	0.287318
1392.35	0.394681
1401.99	0.513844
1411.64	0.640632
1421.28	0.672897
1430.92	0.563366
1440.57	0.45276
1450.21	0.403974
1459.85	0.395723
1469.49	0.383987
1479.13	0.364862
1488.78	0.310111
1498.42	0.272072
1508.06	0.242827
1517.7	0.220226
1527.35	0.186987
1536.99	0.156139
1546.63	0.130231
1556.27	0.107762
1565.91	0.0883173
1575.56	0.0733841
1585.2	0.0622736
1594.84	0.0539133
1604.48	0.0475366
1614.13	0.0432674
1623.77	0.0401731
1633.41	0.0385483
1643.05	0.0377536
1652.7	0.0360941
1662.34	0.0344374
1671.98	0.0312992
1681.62	0.0282508
1691.27	0.0230425
1700.91	0.0197727
1710.55	0.0168403
1720.19	0.0159504
1729.84	0.0144943
1739.48	0.011446
1749.12	0.00969378
1758.76	0.0078386
1768.4	0.00742564
1778.05	0.00813493
1787.69	0.00809405
1797.33	0.00686498
1806.97	0.00721294
1816.62	0.00859351
1826.26	0.00901249
1835.9	0.0100655
1845.54	0.00980501
1855.18	0.0102645
1864.83	0.00910335
1874.47	0.00909144
1884.11	0.00770245
1893.75	0.00763895
1903.4	0.00661039
1913.04	0.00900344
1922.68	0.00597204
1932.32	0.00935391
1941.97	0.0122378
1951.61	0.0119922
1961.25	0.0109996
1970.89	0.0139882
1980.54	0.0143497
1990.18	0.0124496
1999.82	0.0108947
2009.46	0.00993337
2019.11	0.00492098
2028.75	0.00679877
2038.39	0.0184757
2048.03	0.0118538
2057.67	0.00796729
2067.32	0.013792
2076.96	0.0107678
2086.6	0.0107438
2096.24	0.0134989
2105.89	0.00947015
2115.53	0.0107871
2125.17	0.00863348
2134.81	0.0128072
2144.45	0.00907402
2154.1	0.0139591
2163.74	0.0166566
2173.38	0.0158685
2183.02	0.0165115
2192.67	0.0098411
2202.31	0.0126495
2211.95	0.012588
2221.59	0.00881962
2231.24	0.0126032
2240.88	0.0116019
2250.52	0.00961906
2260.16	0.013126
2269.8	0.0130948
2279.45	0.0138529
2289.09	0.013791
2298.73	0.0129844
2308.38	0.0139666
2318.02	0.0135483
2327.66	0.0134383
2337.3	0.0133697
2346.94	0.0134129
2356.59	0.011656
2366.23	0.0124358
2375.87	0.0136286
2385.51	0.0137723
2395.16	0.0148418
2404.8	0.0156373
2414.44	0.0167926
2424.08	0.0146074
2433.72	0.0157476
2443.37	0.0151555
2453.01	0.015205
2462.65	0.0167466
2472.29	0.0161942
2481.94	0.0172065
2491.58	0.0167076
2501.22	0.0177061
2510.86	0.0187132
2520.51	0.02086
2530.15	0.0201442
2539.79	0.0217561
2549.43	0.0198886
2559.07	0.020456
2568.72	0.0255274
2578.36	0.0227136
2588	0.0256063
2597.64	0.0238792
2607.29	0.0258173
2616.93	0.0265834
2626.57	0.0270539
2636.21	0.026596
2645.86	0.0272774
2655.5	0.0263424
2665.14	0.0247468
2674.78	0.0262121
2684.43	0.0273239
2694.07	0.0280628
2703.71	0.02878
2713.35	0.0298261
2722.99	0.0293275
2732.64	0.0299307
2742.28	0.0320988
2751.92	0.0327146
2761.56	0.0338567
2771.21	0.0328329
2780.85	0.0339838
2790.49	0.036674
2800.13	0.0379937
2809.78	0.0373783
2819.42	0.0403444
2829.06	0.0398218
2838.7	0.0442116
2848.34	0.0445019
2857.99	0.0469887
2867.63	0.0511983
2877.27	0.0519778
2886.91	0.0538196
2896.56	0.0550236
2906.2	0.0583801
2915.84	0.0589492
2925.48	0.0620019
2935.13	0.0617372
2944.77	0.0608014
2954.41	0.0614321
2964.05	0.0611027
2973.7	0.0596487
2983.34	0.0617858
2992.98	0.0628677
3002.62	0.0611718
3012.26	0.0594509
3021.91	0.0595345
3031.55	0.0579439
3041.19	0.0613092
3050.83	0.0587852
3060.48	0.0578366
3070.12	0.0574438
3079.76	0.0559658
3089.4	0.058037
3099.05	0.0599362
3108.69	0.0558962
3118.33	0.054989
3127.97	0.0535888
3137.61	0.058412
3147.26	0.054598
3156.9	0.0558403
3166.54	0.055136
3176.18	0.0522316
3185.83	0.0561216
3195.47	0.0551226
3205.11	0.0532476
3214.75	0.0553583
3224.4	0.0508714
3234.04	0.0532855
3243.68	0.0500543
3253.32	0.0496247
3262.97	0.0495112
3272.61	0.0478541
3282.25	0.0499406
3291.89	0.0495288
3301.53	0.0468827
3311.18	0.0510938
3320.82	0.051028
3330.46	0.0482778
3340.1	0.0491506
3349.75	0.0515543
3359.39	0.0525959
3369.03	0.0548451
3378.67	0.0583782
3388.32	0.0606805
3397.96	0.070332
3407.6	0.0713483
3417.24	0.0793277
3426.89	0.0915165
3436.53	0.105568
3446.17	0.112233
3455.81	0.104656
3465.45	0.0867432
3475.1	0.0721289
3484.74	0.0613194
3494.38	0.0636045
3504.02	0.0729723
3513.67	0.0822966
3523.31	0.0576285
3532.95	0.0389296
3542.59	0.0261642
3552.24	0.0254687
3561.88	0.021787
3571.52	0.0188497
3581.16	0.0210683
3590.8	0.0213963
3600.45	0.0176459
3610.09	0.0157549
3619.73	0.0141351
3629.37	0.0168667
3639.02	0.0155248
3648.66	0.0826533
3658.3	0.0104346
3667.94	0.0158306
3677.59	0.0130746
3687.23	0.0101272
3696.87	0.0148095
3706.51	0.0150875
3716.16	0.0124901
3725.8	0.0106151
3735.44	0.012312
3745.08	0.00869808
3754.72	0.012657
3764.37	0.0107097
3774.01	0.0154205
3783.65	0.0120692
3793.29	0.00550196
3802.94	0.00814711
3812.58	0.011281
3822.22	0.0130423
3831.86	0.00705846
3841.51	0.00913703
3851.15	0.0157296
3860.79	0.00895177
3870.43	0.0112717
3880.07	0.0135533
3889.72	0.00906445
3899.36	0.0102941
3909	0.00866267
3918.64	0.0112959
3928.29	0.0060103
3937.93	0.00845545
3947.57	0.00850376
3957.21	0.010522
3966.86	0.0107246
3976.5	0.00968122
3986.14	0.00656901
3995.78	0.011792
