Measurement: Infrared, Infrared Data Processed
Mineral: Nesquehonite
Rruff sample: R050639
Ideal chemistry: MgCO_3_3H_2_O
Locality: Nesquehoning, Pennsylvania, USA
Source: University of Arizona Mineral Museum
Description: White to colorless bladed crystals
Measured chemistry: Mg_1.00_(HCO_3_)(OH)Â·2H_2_O ; C and H not measured but estimated by difference and charge balance
x	intensity
374.123	0.320829
383.765	0.275978
393.407	0.216324
403.05	0.183268
412.692	0.170263
422.334	0.163087
431.976	0.155509
441.619	0.140754
451.261	0.1293
460.904	0.123407
470.546	0.120894
480.188	0.118284
489.83	0.115621
499.473	0.111714
509.115	0.107224
518.758	0.101758
528.4	0.0975487
538.042	0.0942484
547.684	0.0942667
557.327	0.0965323
566.969	0.100953
576.611	0.107911
586.254	0.116045
595.896	0.12404
605.538	0.129356
615.181	0.12933
624.823	0.126394
634.466	0.122742
644.108	0.120308
653.75	0.118391
663.393	0.117372
673.035	0.115714
682.677	0.116324
692.319	0.118607
701.962	0.121033
711.604	0.11311
721.246	0.106672
730.889	0.101194
740.531	0.0972517
750.173	0.0920124
759.816	0.0837293
769.458	0.0760427
779.101	0.0705743
788.743	0.0676124
798.385	0.0673719
808.028	0.0676017
817.67	0.0685561
827.312	0.071484
836.955	0.078056
846.597	0.111006
856.239	0.114308
865.881	0.0500122
875.524	0.0446068
885.166	0.0419573
894.808	0.0377583
904.451	0.0351405
914.093	0.0334421
923.736	0.0323396
933.378	0.0309358
943.02	0.0295182
952.663	0.0286231
962.305	0.027881
971.947	0.0274432
981.59	0.0271515
991.232	0.0268179
1000.87	0.0270681
1010.52	0.0273945
1020.16	0.0275355
1029.8	0.027598
1039.44	0.0273673
1049.09	0.0273182
1058.73	0.0276959
1068.37	0.0284423
1078.01	0.0295016
1087.65	0.0315694
1097.3	0.0382038
1106.94	0.0322296
1116.58	0.0300333
1126.22	0.0300396
1135.87	0.03067
1145.51	0.0318373
1155.15	0.0331339
1164.79	0.0348299
1174.44	0.036055
1184.08	0.0377281
1193.72	0.0399841
1203.36	0.0420192
1213.01	0.0441692
1222.65	0.0471081
1232.29	0.0499395
1241.93	0.0532937
1251.58	0.057066
1261.22	0.0614153
1270.86	0.0667588
1280.5	0.0730834
1290.14	0.0789673
1299.79	0.0864703
1309.43	0.0961476
1319.07	0.107831
1328.71	0.123107
1338.36	0.14325
1348	0.168807
1357.64	0.202512
1367.28	0.248943
1376.92	0.309412
1386.57	0.378531
1396.21	0.452314
1405.85	0.49535
1415.49	0.474216
1425.14	0.41857
1434.78	0.356374
1444.42	0.3066
1454.06	0.280927
1463.71	0.287496
1473.35	0.304093
1482.99	0.238863
1492.63	0.18293
1502.28	0.256889
1511.92	0.402591
1521.56	0.395422
1531.2	0.295425
1540.85	0.218025
1550.49	0.160473
1560.13	0.119143
1569.77	0.0889882
1579.41	0.0698187
1589.06	0.0599189
1598.7	0.05606
1608.34	0.0557772
1617.98	0.0589292
1627.63	0.0641638
1637.27	0.0693681
1646.91	0.069877
1656.55	0.0675632
1666.19	0.0653822
1675.84	0.0600304
1685.48	0.0500599
1695.12	0.0417247
1704.77	0.0359131
1714.41	0.0308252
1724.05	0.0252513
1733.69	0.0201655
1743.33	0.0153562
1752.98	0.012099
1762.62	0.0106952
1772.26	0.00974269
1781.9	0.00937164
1791.55	0.0101165
1801.19	0.00951257
1810.83	0.00848019
1820.47	0.00750403
1830.12	0.00679495
1839.76	0.00667743
1849.4	0.00635776
1859.04	0.00603212
1868.68	0.00628976
1878.33	0.00603732
1887.97	0.00591677
1897.61	0.00513162
1907.25	0.00557909
1916.9	0.00596418
1926.54	0.00555633
1936.18	0.0056619
1945.82	0.00502601
1955.46	0.0044468
1965.11	0.00533053
1974.75	0.00563728
1984.39	0.00752315
1994.04	0.00618202
2003.68	0.00568384
2013.32	0.00731861
2022.96	0.00642145
2032.6	0.00758875
2042.25	0.00759635
2051.89	0.00864416
2061.53	0.0084108
2071.17	0.0085199
2080.82	0.00816062
2090.46	0.00804532
2100.1	0.00925882
2109.74	0.00863692
2119.39	0.00817719
2129.03	0.00665624
2138.67	0.00726063
2148.31	0.00688432
2157.95	0.00631661
2167.6	0.00980565
2177.24	0.0102938
2186.88	0.0119299
2196.52	0.011434
2206.17	0.0116431
2215.81	0.0114135
2225.45	0.0116058
2235.09	0.0114193
2244.74	0.0126276
2254.38	0.0130484
2264.02	0.0123484
2273.66	0.0134123
2283.3	0.013771
2292.95	0.0138469
2302.59	0.0136507
2312.23	0.013564
2321.87	0.0149935
2331.52	0.0133388
2341.16	0.0128772
2350.8	0.0121247
2360.44	0.012257
2370.09	0.0115323
2379.73	0.0110962
2389.37	0.0108083
2399.01	0.0107924
2408.66	0.0108264
2418.3	0.0104037
2427.94	0.0104748
2437.58	0.0108646
2447.22	0.0109201
2456.87	0.010538
2466.51	0.0107013
2476.15	0.0112806
2485.79	0.0116023
2495.44	0.0123456
2505.08	0.0132356
2514.72	0.0136886
2524.36	0.0124051
2534.01	0.0124966
2543.65	0.0119674
2553.29	0.0124349
2562.93	0.0117011
2572.57	0.0119725
2582.22	0.0130889
2591.86	0.0135958
2601.5	0.014261
2611.14	0.0163103
2620.79	0.0167829
2630.43	0.0162093
2640.07	0.016323
2649.71	0.0158487
2659.36	0.0155298
2669	0.0147805
2678.64	0.0149125
2688.28	0.01539
2697.93	0.0155418
2707.57	0.0158799
2717.21	0.0167272
2726.85	0.0173473
2736.49	0.0179305
2746.14	0.0189283
2755.78	0.0190767
2765.42	0.02008
2775.06	0.0214763
2784.71	0.022181
2794.35	0.023163
2803.99	0.0246935
2813.63	0.0262958
2823.28	0.0276284
2832.92	0.0290965
2842.56	0.03126
2852.2	0.0330292
2861.84	0.035578
2871.49	0.03733
2881.13	0.0395225
2890.77	0.0420537
2900.41	0.0453247
2910.06	0.0481646
2919.7	0.0509095
2929.34	0.0541413
2938.98	0.056242
2948.62	0.0600584
2958.27	0.0636181
2967.91	0.0680455
2977.55	0.0719115
2987.2	0.0762494
2996.84	0.0803929
3006.48	0.0845298
3016.12	0.087768
3025.76	0.0942845
3035.41	0.100127
3045.05	0.108203
3054.69	0.116113
3064.33	0.125999
3073.98	0.136526
3083.62	0.147038
3093.26	0.158389
3102.9	0.168789
3112.55	0.177679
3122.19	0.182889
3131.83	0.185634
3141.47	0.187335
3151.11	0.187403
3160.76	0.188392
3170.4	0.189954
3180.04	0.192687
3189.68	0.196224
3199.33	0.20083
3208.97	0.208007
3218.61	0.213493
3228.25	0.219549
3237.9	0.224616
3247.54	0.227852
3257.18	0.228269
3266.82	0.228127
3276.47	0.225438
3286.11	0.222809
3295.75	0.220093
3305.39	0.216876
3315.03	0.213901
3324.68	0.210782
3334.32	0.206501
3343.96	0.202887
3353.6	0.197253
3363.25	0.191581
3372.89	0.18477
3382.53	0.178087
3392.17	0.172214
3401.82	0.164516
3411.46	0.15928
3421.1	0.154809
3430.74	0.152753
3440.39	0.150929
3450.03	0.149174
3459.67	0.14319
3469.31	0.134558
3478.95	0.125909
3488.6	0.114848
3498.24	0.106398
3507.88	0.0976668
3517.52	0.0911062
3527.17	0.0907975
3536.81	0.101071
3546.45	0.119329
3556.09	0.13703
3565.74	0.106835
3575.38	0.0629887
3585.02	0.042578
3594.66	0.0325176
3604.3	0.0236537
3613.95	0.0184448
3623.59	0.0141223
3633.23	0.0108267
3642.87	0.0078093
3652.52	0.00558278
3662.16	0.00390278
3671.8	0.0025935
3681.44	0.000867033
3691.09	0.000659091
3700.73	0.00111807
3710.37	0.000669053
3720.01	0.000360326
3729.66	-0.000192277
3739.3	-0.000191287
3748.94	0.000604555
3758.58	0.000104739
3768.22	0.000378733
3777.87	5.58294e-05
3787.51	-0.000421485
3797.15	0.000425309
3806.79	-0.000357679
3816.44	0.000567243
3826.08	-0.000154656
3835.72	0.000734378
3845.36	0.000565297
3855.01	0.000500401
3864.65	7.7857e-05
3874.29	0.000643518
3883.93	0.000462705
3893.57	-0.000203178
3903.22	0.000326717
3912.86	0.000225734
3922.5	0.00104149
3932.14	0.000720383
3941.79	0.000747629
3951.43	0.00112909
3961.07	0.00112751
3970.71	0.000911992
3980.36	0.000298746
3990	0.00125521
3999.64	0.00105243
